6

Se       0.62226222       2.24809873       4.77365046
Pd       0.00000000       0.00000000       4.02376059
Se       2.23667230       5.18014421       4.77365046
Pd       2.85893451       2.93204548       4.02376059
Se       3.48119673       0.68394675       3.27387073
Se       5.09560681       3.61599224       3.27387073
VEC1       5.71786903       0.00000000       0.00000000 
VEC2       0.00000000       5.86409096       0.00000000 
VEC3       0.00000000       0.00000000     100.00000000 
