6

Mo       1.05333333       0.00000000      57.73055000
Mo      -0.52666667       0.91221343      51.58055000
S        1.05333333       0.00000000      53.16110000
S        2.63333333       0.91221343      59.31110000
S       -0.52666667       0.91221343      56.15000000
S        1.05333333       0.00000000      50.00000000
VEC1       3.16000000       0.00000000       0.00000000
VEC2      -1.58000000       2.73664028       0.00000000
VEC3       0.00000000       0.00000000     109.31110000
