6

W       0.00000000       1.89370888       3.36250000
W       1.64000000       0.94685444      10.08750000
Se       0.00000000       1.89370888      11.81582500
Se       1.64000000       0.94685444       5.09082500
Se       1.64000000       0.94685444       1.63417500
Se      -0.00000000       1.89370888       8.35917500
VEC1       3.28000000       0.00000000       0.00000000 
VEC2      -1.64000000       2.84056332       0.00000000 
VEC3       0.00000000       0.00000000      13.45000000 
