124

C      -16.11039514     -13.14069534      48.00000000
C      -17.34103522     -12.43166548      48.00000000
C      -13.65039714     -13.13847454      48.00000000
C      -14.88103723     -12.42944469      48.00000000
C      -14.88231940     -11.00916418      48.00000000
C      -16.11295949     -10.30013433      48.00000000
C      -11.19039915     -13.13625375      48.00000000
C      -12.42103923     -12.42722389      48.00000000
C      -12.42232141     -11.00694339      48.00000000
C      -13.65296149     -10.29791353      48.00000000
C      -13.65424367      -8.87763303      48.00000000
C      -14.88488375      -8.16860318      48.00000000
C       -8.73040115     -13.13403296      48.00000000
C       -9.96104124     -12.42500310      48.00000000
C       -9.96232341     -11.00472260      48.00000000
C      -11.19296350     -10.29569274      48.00000000
C      -11.19424567      -8.87541224      48.00000000
C      -12.42488576      -8.16638238      48.00000000
C      -12.42616793      -6.74610188      48.00000000
C      -13.65680802      -6.03707202      48.00000000
C       -1.36194675      -0.34484604      48.00000000
C       -7.50104325     -12.42278231      48.00000000
C       -7.50232542     -11.00250181      48.00000000
C       -8.73296550     -10.29347195      48.00000000
C       -8.73424768      -8.87319145      48.00000000
C       -9.96488776      -8.16416159      48.00000000
C       -9.96616994      -6.74388109      48.00000000
C      -11.19681002      -6.03485123      48.00000000
C      -11.19809220      -4.61457073      48.00000000
C      -12.42873228      -3.90554087      48.00000000
C       -5.04232743     -11.00028101      48.00000000
C       -6.27296751     -10.29125116      48.00000000
C       -6.27424969      -8.87097065      48.00000000
C       -7.50488977      -8.16194080      48.00000000
C       -7.50617195      -6.74166029      48.00000000
C       -8.73681203      -6.03263044      48.00000000
C       -8.73809421      -4.61234993      48.00000000
C       -9.96873429      -3.90332008      48.00000000
C       -9.97001647      -2.48303957      48.00000000
C      -11.20065655      -1.77400972      48.00000000
C       -3.81425169      -8.86874986      48.00000000
C       -5.04489178      -8.15972000      48.00000000
C       -5.04617395      -6.73943950      48.00000000
C       -6.27681404      -6.03040965      48.00000000
C       -6.27809621      -4.61012914      48.00000000
C       -7.50873630      -3.90109929      48.00000000
C       -7.51001847      -2.48081878      48.00000000
C       -8.74065856      -1.77178893      48.00000000
C       -2.58617596      -6.73721871      48.00000000
C       -3.81681604      -6.02818885      48.00000000
C       -3.81809822      -4.60790835      48.00000000
C       -5.04873830      -3.89887849      48.00000000
C       -5.05002048      -2.47859799      48.00000000
C       -6.28066056      -1.76956813      48.00000000
C      -14.88616593      -6.74832267      48.00000000
C       -2.58874031      -3.89665770      48.00000000
C       -2.59002248      -2.47637720      48.00000000
C       -3.82066257      -1.76734734      48.00000000
C      -13.65809019      -4.61679152      48.00000000
C       -1.36066457      -1.76512655      48.00000000
C      -12.43001446      -2.48526037      48.00000000
C       -5.04104525     -12.42056152      48.00000000
C      -14.83985018     -14.10167462      52.00000000
C      -16.22882757     -13.80512754      52.00000000
C      -12.49956680     -13.34360554      52.00000000
C      -13.88854418     -13.04705846      52.00000000
C      -14.32621558     -11.69589522      52.00000000
C      -15.71519296     -11.39934814      52.00000000
C      -10.15928341     -12.58553645      52.00000000
C      -11.54826080     -12.28898937      52.00000000
C      -11.98593219     -10.93782613      52.00000000
C      -13.37490958     -10.64127905      52.00000000
C      -13.81258097      -9.29011581      52.00000000
C      -15.20155836      -8.99356873      52.00000000
C       -7.81900003     -11.82746736      52.00000000
C       -9.20797742     -11.53092028      52.00000000
C       -9.64564881     -10.17975704      52.00000000
C      -11.03462619      -9.88320996      52.00000000
C      -11.47229759      -8.53204672      52.00000000
C      -12.86127497      -8.23549964      52.00000000
C      -13.29894637      -6.88433640      52.00000000
C      -14.68792375      -6.58778932      52.00000000
C       -5.47871664     -11.06939827      52.00000000
C       -6.86769403     -10.77285120      52.00000000
C       -7.30536542      -9.42168795      52.00000000
C       -8.69434281      -9.12514088      52.00000000
C       -9.13201420      -7.77397764      52.00000000
C      -10.52099159      -7.47743056      52.00000000
C      -10.95866298      -6.12626732      52.00000000
C      -12.34764037      -5.82972024      52.00000000
C      -12.78531176      -4.47855700      52.00000000
C      -14.17428915      -4.18200992      52.00000000
C      -16.66649896     -12.45396430      52.00000000
C       -4.52741065     -10.01478211      52.00000000
C       -4.96508204      -8.66361887      52.00000000
C       -6.35405943      -8.36707179      52.00000000
C       -6.79173082      -7.01590855      52.00000000
C       -8.18070820      -6.71936147      52.00000000
C       -8.61837960      -5.36819823      52.00000000
C      -10.00735698      -5.07165115      52.00000000
C      -10.44502838      -3.72048791      52.00000000
C      -11.83400576      -3.42394083      52.00000000
C      -16.15286436     -10.04818490      52.00000000
C       -4.01377604      -7.60900270      52.00000000
C       -4.45144743      -6.25783946      52.00000000
C       -5.84042482      -5.96129238      52.00000000
C       -6.27809621      -4.61012914      52.00000000
C       -7.66707360      -4.31358206      52.00000000
C       -8.10474499      -2.96241882      52.00000000
C       -9.49372238      -2.66587174      52.00000000
C       -2.11116405      -5.49977037      52.00000000
C       -3.50014144      -5.20322330      52.00000000
C       -3.93781283      -3.85206005      52.00000000
C       -5.32679022      -3.55551298      52.00000000
C       -5.76446161      -2.20434973      52.00000000
C       -7.15343899      -1.90780266      52.00000000
C       -1.59752944      -3.09399097      52.00000000
C       -2.98650683      -2.79744389      52.00000000
C       -3.42417822      -1.44628065      52.00000000
C       -4.81315561      -1.14973357      52.00000000
C       -1.08389484      -0.68821156      52.00000000
C       -2.47287223      -0.39166448      52.00000000
C      -12.27167716      -2.07277759      52.00000000
C       -5.04104525     -12.42056152      52.00000000
VEC1     -13.52806570      -2.14263511       0.00000000
VEC2      -4.90845641     -12.78696612       0.00000000
VEC3       0.00000000       0.00000000     104.00000000
