309

C        0.00000000     -34.01747785      47.64180106
C       -1.22750000     -33.30878039      47.64180106
C       -1.22750000     -31.89138548      47.64180106
C       -2.45500000     -31.18268803      47.64180106
C       -2.45500000     -29.76529312      47.64180106
C       -3.68250000     -29.05659566      47.64180106
C       -3.68250000     -27.63920075      47.64180106
C       -4.91000000     -26.93050329      47.64180106
C       -4.91000000     -25.51310838      47.64180106
C       -6.13750000     -24.80441093      47.64180106
C       -6.13750000     -23.38701602      47.64180106
C       -7.36500000     -22.67831856      47.64180106
C       -7.36500000     -21.26092365      47.64180106
C       -8.59250000     -20.55222620      47.64180106
C       -8.59250000     -19.13483129      47.64180106
C       -9.82000000     -18.42613383      47.64180106
C       -9.82000000     -17.00873892      47.64180106
C        0.00000000     -35.43487276      47.64180106
C        1.22750000     -31.89138548      47.64180106
C       -0.00000000     -31.18268803      47.64180106
C        0.00000000     -29.76529312      47.64180106
C       -1.22750000     -29.05659566      47.64180106
C       -1.22750000     -27.63920075      47.64180106
C       -2.45500000     -26.93050329      47.64180106
C       -2.45500000     -25.51310838      47.64180106
C       -3.68250000     -24.80441093      47.64180106
C       -3.68250000     -23.38701602      47.64180106
C       -4.91000000     -22.67831856      47.64180106
C       -4.91000000     -21.26092365      47.64180106
C       -6.13750000     -20.55222620      47.64180106
C       -6.13750000     -19.13483129      47.64180106
C       -7.36500000     -18.42613383      47.64180106
C       -7.36500000     -17.00873892      47.64180106
C       -8.59250000     -16.30004147      47.64180106
C       -8.59250000     -14.88264656      47.64180106
C        1.22750000     -33.30878039      47.64180106
C        2.45500000     -29.76529312      47.64180106
C        1.22750000     -29.05659566      47.64180106
C        1.22750000     -27.63920075      47.64180106
C        0.00000000     -26.93050329      47.64180106
C        0.00000000     -25.51310838      47.64180106
C       -1.22750000     -24.80441093      47.64180106
C       -1.22750000     -23.38701602      47.64180106
C       -2.45500000     -22.67831856      47.64180106
C       -2.45500000     -21.26092365      47.64180106
C       -3.68250000     -20.55222620      47.64180106
C       -3.68250000     -19.13483129      47.64180106
C       -4.91000000     -18.42613383      47.64180106
C       -4.91000000     -17.00873892      47.64180106
C       -6.13750000     -16.30004147      47.64180106
C       -6.13750000     -14.88264656      47.64180106
C       -7.36500000     -14.17394910      47.64180106
C       -7.36500000     -12.75655419      47.64180106
C        2.45500000     -31.18268803      47.64180106
C        3.68250000     -27.63920075      47.64180106
C        2.45500000     -26.93050329      47.64180106
C        2.45500000     -25.51310838      47.64180106
C        1.22750000     -24.80441093      47.64180106
C        1.22750000     -23.38701602      47.64180106
C        0.00000000     -22.67831856      47.64180106
C        0.00000000     -21.26092365      47.64180106
C       -1.22750000     -20.55222620      47.64180106
C       -1.22750000     -19.13483129      47.64180106
C       -2.45500000     -18.42613383      47.64180106
C       -2.45500000     -17.00873892      47.64180106
C       -3.68250000     -16.30004147      47.64180106
C       -3.68250000     -14.88264656      47.64180106
C       -4.91000000     -14.17394910      47.64180106
C       -4.91000000     -12.75655419      47.64180106
C       -6.13750000     -12.04785674      47.64180106
C       -6.13750000     -10.63046183      47.64180106
C        3.68250000     -29.05659566      47.64180106
C        4.91000000     -25.51310838      47.64180106
C        3.68250000     -24.80441093      47.64180106
C        3.68250000     -23.38701602      47.64180106
C        2.45500000     -22.67831856      47.64180106
C        2.45500000     -21.26092365      47.64180106
C        1.22750000     -20.55222620      47.64180106
C        1.22750000     -19.13483129      47.64180106
C        0.00000000     -18.42613383      47.64180106
C        0.00000000     -17.00873892      47.64180106
C       -1.22750000     -16.30004147      47.64180106
C       -1.22750000     -14.88264656      47.64180106
C       -2.45500000     -14.17394910      47.64180106
C       -2.45500000     -12.75655419      47.64180106
C       -3.68250000     -12.04785674      47.64180106
C       -3.68250000     -10.63046183      47.64180106
C       -4.91000000      -9.92176437      47.64180106
C       -4.91000000      -8.50436946      47.64180106
C        4.91000000     -26.93050329      47.64180106
C        6.13750000     -23.38701602      47.64180106
C        4.91000000     -22.67831856      47.64180106
C        4.91000000     -21.26092365      47.64180106
C        3.68250000     -20.55222620      47.64180106
C        3.68250000     -19.13483129      47.64180106
C        2.45500000     -18.42613383      47.64180106
C        2.45500000     -17.00873892      47.64180106
C        1.22750000     -16.30004147      47.64180106
C        1.22750000     -14.88264656      47.64180106
C       -0.00000000     -14.17394910      47.64180106
C        0.00000000     -12.75655419      47.64180106
C       -1.22750000     -12.04785674      47.64180106
C       -1.22750000     -10.63046183      47.64180106
C       -2.45500000      -9.92176437      47.64180106
C       -2.45500000      -8.50436946      47.64180106
C       -3.68250000      -7.79567201      47.64180106
C       -3.68250000      -6.37827710      47.64180106
C        6.13750000     -24.80441093      47.64180106
C        7.36500000     -21.26092365      47.64180106
C        6.13750000     -20.55222620      47.64180106
C        6.13750000     -19.13483129      47.64180106
C        4.91000000     -18.42613383      47.64180106
C        4.91000000     -17.00873892      47.64180106
C        3.68250000     -16.30004147      47.64180106
C        3.68250000     -14.88264656      47.64180106
C        2.45500000     -14.17394910      47.64180106
C        2.45500000     -12.75655419      47.64180106
C        1.22750000     -12.04785674      47.64180106
C        1.22750000     -10.63046183      47.64180106
C        0.00000000      -9.92176437      47.64180106
C        0.00000000      -8.50436946      47.64180106
C       -1.22750000      -7.79567201      47.64180106
C       -1.22750000      -6.37827710      47.64180106
C       -2.45500000      -5.66957964      47.64180106
C       -2.45500000      -4.25218473      47.64180106
C        7.36500000     -22.67831856      47.64180106
C        8.59250000     -19.13483129      47.64180106
C        7.36500000     -18.42613383      47.64180106
C        7.36500000     -17.00873892      47.64180106
C        6.13750000     -16.30004147      47.64180106
C        6.13750000     -14.88264656      47.64180106
C        4.91000000     -14.17394910      47.64180106
C        4.91000000     -12.75655419      47.64180106
C        3.68250000     -12.04785674      47.64180106
C        3.68250000     -10.63046183      47.64180106
C        2.45500000      -9.92176437      47.64180106
C        2.45500000      -8.50436946      47.64180106
C        1.22750000      -7.79567201      47.64180106
C        1.22750000      -6.37827710      47.64180106
C       -0.00000000      -5.66957964      47.64180106
C       -0.00000000      -4.25218473      47.64180106
C       -1.22750000      -3.54348728      47.64180106
C       -1.22750000      -2.12609237      47.64180106
C        8.59250000     -20.55222620      47.64180106
C       -1.22750000     -36.14357021      47.64180106
C        8.59250000     -16.30004147      47.64180106
C       -2.45500000     -34.01747785      47.64180106
C        7.36500000     -14.17394910      47.64180106
C        7.36500000     -12.75655419      47.64180106
C        6.13750000     -12.04785674      47.64180106
C        6.13750000     -10.63046183      47.64180106
C        4.91000000      -9.92176437      47.64180106
C        4.91000000      -8.50436946      47.64180106
C        3.68250000      -7.79567201      47.64180106
C        3.68250000      -6.37827710      47.64180106
C        2.45500000      -5.66957964      47.64180106
C        2.45500000      -4.25218473      47.64180106
C        1.22750000      -3.54348728      47.64180106
C        1.22750000      -2.12609237      47.64180106
C       -0.00000000      -1.41739491      47.64180106
C       -0.00000000      -0.00000000      47.64180106
C        9.82000000     -18.42613383      47.64180106
W       -1.34440476     -32.29635546      53.22877606
S        0.23380952     -33.20753790      54.81575106
S        0.23380952     -33.20753790      51.64180106
W       -2.92261905     -29.56280813      53.22877606
S       -1.34440476     -30.47399057      54.81575106
S       -1.34440476     -30.47399057      51.64180106
W       -4.50083333     -26.82926080      53.22877606
S       -2.92261905     -27.74044324      54.81575106
S       -2.92261905     -27.74044324      51.64180106
W       -6.07904762     -24.09571347      53.22877606
S       -4.50083333     -25.00689592      54.81575106
S       -4.50083333     -25.00689592      51.64180106
W       -7.65726190     -21.36216615      53.22877606
S       -6.07904762     -22.27334859      54.81575106
S       -6.07904762     -22.27334859      51.64180106
W       -9.23547619     -18.62861882      53.22877606
S       -7.65726190     -19.53980126      54.81575106
S       -7.65726190     -19.53980126      51.64180106
W        0.23380952     -35.02990278      53.22877606
S       -9.23547619     -16.80625394      54.81575106
S       -9.23547619     -16.80625394      51.64180106
W        0.23380952     -29.56280813      53.22877606
S        1.81202381     -30.47399057      54.81575106
S        1.81202381     -30.47399057      51.64180106
W       -1.34440476     -26.82926080      53.22877606
S        0.23380952     -27.74044324      54.81575106
S        0.23380952     -27.74044324      51.64180106
W       -2.92261905     -24.09571347      53.22877606
S       -1.34440476     -25.00689592      54.81575106
S       -1.34440476     -25.00689592      51.64180106
W       -4.50083333     -21.36216615      53.22877606
S       -2.92261905     -22.27334859      54.81575106
S       -2.92261905     -22.27334859      51.64180106
W       -6.07904762     -18.62861882      53.22877606
S       -4.50083333     -19.53980126      54.81575106
S       -4.50083333     -19.53980126      51.64180106
W       -7.65726190     -15.89507149      53.22877606
S       -6.07904762     -16.80625394      54.81575106
S       -6.07904762     -16.80625394      51.64180106
W        1.81202381     -32.29635546      53.22877606
S       -7.65726190     -14.07270661      54.81575106
S       -7.65726190     -14.07270661      51.64180106
W        1.81202381     -26.82926080      53.22877606
S        3.39023809     -27.74044324      54.81575106
S        3.39023809     -27.74044324      51.64180106
W        0.23380952     -24.09571347      53.22877606
S        1.81202381     -25.00689592      54.81575106
S        1.81202381     -25.00689592      51.64180106
W       -1.34440476     -21.36216615      53.22877606
S        0.23380952     -22.27334859      54.81575106
S        0.23380952     -22.27334859      51.64180106
W       -2.92261905     -18.62861882      53.22877606
S       -1.34440476     -19.53980126      54.81575106
S       -1.34440476     -19.53980126      51.64180106
W       -4.50083333     -15.89507149      53.22877606
S       -2.92261905     -16.80625394      54.81575106
S       -2.92261905     -16.80625394      51.64180106
W       -6.07904762     -13.16152417      53.22877606
S       -4.50083333     -14.07270661      54.81575106
S       -4.50083333     -14.07270661      51.64180106
W        3.39023809     -29.56280813      53.22877606
S       -6.07904762     -11.33915928      54.81575106
S       -6.07904762     -11.33915928      51.64180106
W        3.39023809     -24.09571347      53.22877606
S        4.96845238     -25.00689592      54.81575106
S        4.96845238     -25.00689592      51.64180106
W        1.81202381     -21.36216615      53.22877606
S        3.39023809     -22.27334859      54.81575106
S        3.39023809     -22.27334859      51.64180106
W        0.23380952     -18.62861882      53.22877606
S        1.81202381     -19.53980126      54.81575106
S        1.81202381     -19.53980126      51.64180106
W       -1.34440476     -15.89507149      53.22877606
S        0.23380952     -16.80625394      54.81575106
S        0.23380952     -16.80625394      51.64180106
W       -2.92261905     -13.16152417      53.22877606
S       -1.34440476     -14.07270661      54.81575106
S       -1.34440476     -14.07270661      51.64180106
W       -4.50083333     -10.42797684      53.22877606
S       -2.92261905     -11.33915928      54.81575106
S       -2.92261905     -11.33915928      51.64180106
W        4.96845238     -26.82926080      53.22877606
S       -4.50083333      -8.60561196      54.81575106
S       -4.50083333      -8.60561196      51.64180106
W        4.96845238     -21.36216615      53.22877606
S        6.54666666     -22.27334859      54.81575106
S        6.54666666     -22.27334859      51.64180106
W        3.39023809     -18.62861882      53.22877606
S        4.96845238     -19.53980126      54.81575106
S        4.96845238     -19.53980126      51.64180106
W        1.81202381     -15.89507149      53.22877606
S        3.39023809     -16.80625394      54.81575106
S        3.39023809     -16.80625394      51.64180106
W        0.23380952     -13.16152417      53.22877606
S        1.81202381     -14.07270661      54.81575106
S        1.81202381     -14.07270661      51.64180106
W       -1.34440476     -10.42797684      53.22877606
S        0.23380952     -11.33915928      54.81575106
S        0.23380952     -11.33915928      51.64180106
W       -2.92261905      -7.69442951      53.22877606
S       -1.34440476      -8.60561196      54.81575106
S       -1.34440476      -8.60561196      51.64180106
W        6.54666666     -24.09571347      53.22877606
S       -2.92261905      -5.87206463      54.81575106
S       -2.92261905      -5.87206463      51.64180106
W        6.54666666     -18.62861882      53.22877606
S        8.12488095     -19.53980126      54.81575106
S        8.12488095     -19.53980126      51.64180106
W        4.96845238     -15.89507149      53.22877606
S        6.54666666     -16.80625394      54.81575106
S        6.54666666     -16.80625394      51.64180106
W        3.39023809     -13.16152417      53.22877606
S        4.96845238     -14.07270661      54.81575106
S        4.96845238     -14.07270661      51.64180106
W        1.81202381     -10.42797684      53.22877606
S        3.39023809     -11.33915928      54.81575106
S        3.39023809     -11.33915928      51.64180106
W        0.23380952      -7.69442951      53.22877606
S        1.81202381      -8.60561196      54.81575106
S        1.81202381      -8.60561196      51.64180106
W       -1.34440476      -4.96088219      53.22877606
S        0.23380952      -5.87206463      54.81575106
S        0.23380952      -5.87206463      51.64180106
W        8.12488095     -21.36216615      53.22877606
S       -1.34440476      -3.13851730      54.81575106
S       -1.34440476      -3.13851730      51.64180106
W        8.12488095     -15.89507149      53.22877606
S        9.70309523     -16.80625394      54.81575106
S        9.70309523     -16.80625394      51.64180106
W        6.54666666     -13.16152417      53.22877606
S        8.12488095     -14.07270661      54.81575106
S        8.12488095     -14.07270661      51.64180106
W        4.96845238     -10.42797684      53.22877606
S        6.54666666     -11.33915928      54.81575106
S        6.54666666     -11.33915928      51.64180106
W        3.39023809      -7.69442951      53.22877606
S        4.96845238      -8.60561196      54.81575106
S        4.96845238      -8.60561196      51.64180106
W        1.81202381      -4.96088219      53.22877606
S        3.39023809      -5.87206463      54.81575106
S        3.39023809      -5.87206463      51.64180106
W        0.23380952      -2.22733486      53.22877606
S        1.81202381      -3.13851730      54.81575106
S        1.81202381      -3.13851730      51.64180106
W        9.70309523     -18.62861882      53.22877606
S        0.23380952      -0.40496997      54.81575106
S        0.23380952      -0.40496997      51.64180106
VEC1     -11.04750000     -19.13483129       0.00000000
VEC2      11.04750000     -19.13483129       0.00000000
VEC3       0.00000000       0.00000000     107.17395000
