20

C       -4.10000000      -4.26084498      48.00000000
C       -1.64000000      -5.68112665      48.00000000
C       -4.10000000      -8.52168997      48.00000000
C       -5.33000000      -7.81154914      48.00000000
C       -2.87000000      -6.39126748      48.00000000
C       -4.10000000      -5.68112665      48.00000000
C       -1.64000000      -4.26084498      48.00000000
C       -2.87000000      -3.55070415      48.00000000
C       -0.41000000      -2.13042249      48.00000000
C       -1.64000000      -1.42028166      48.00000000
C       -4.10000000      -4.26084498      52.00000000
C       -1.64000000      -5.68112665      52.00000000
C       -4.10000000      -8.52168997      52.00000000
C       -5.33000000      -7.81154914      52.00000000
C       -2.87000000      -6.39126748      52.00000000
C       -4.10000000      -5.68112665      52.00000000
C       -1.64000000      -4.26084498      52.00000000
C       -2.87000000      -3.55070415      52.00000000
C       -0.41000000      -2.13042249      52.00000000
C       -1.64000000      -1.42028166      52.00000000
VEC1      -4.92000000      -4.26084498       0.00000000
VEC2      -1.23000000      -6.39126748       0.00000000
VEC3       0.00000000       0.00000000     104.00000000
