45

C        1.35184507       0.00000000      47.61730539
C        0.00000000       0.00000000      47.61730539
C        5.40738027       0.00000000      47.61730539
C        4.05553520       0.00000000      47.61730539
C        3.38779207       1.28919185      47.61730539
C        2.03594700       1.28919185      47.61730539
C       -0.66774313       1.28919185      47.61730539
C        6.09148220       1.28919185      47.61730539
C        5.42373907       2.57838370      47.61730539
C        4.07189400       2.57838370      47.61730539
C        3.40415087       3.86757555      47.61730539
C        2.05230580       3.86757555      47.61730539
C        1.36820387       2.57838370      47.61730539
C        0.01635880       2.57838370      47.61730539
C       -0.65138433       3.86757555      47.61730539
C       -2.00322940       3.86757555      47.61730539
C       -2.67097254       5.15676741      47.61730539
C        4.08825280       5.15676741      47.61730539
C        1.38456267       5.15676741      47.61730539
C        0.03271760       5.15676741      47.61730539
C       -0.63502554       6.44595926      47.61730539
C       -1.98687060       6.44595926      47.61730539
C        3.42050967       6.44595926      47.61730539
C        2.06866460       6.44595926      47.61730539
W        7.53404520       0.36834053      53.20428039
S        0.01402183       2.21004317      54.79125539
S        0.01402183       2.21004317      51.61730539
W        1.19611588       5.89344846      53.20428039
S        5.79362172       0.00000000      54.79125539
S        5.79362172       0.00000000      51.61730539
W       -1.13535463       3.68340529      53.20428039
S       -0.54430760       5.52510793      54.79125539
S       -0.54430760       5.52510793      51.61730539
W        4.64424526       1.47336212      53.20428039
S        5.23529229       3.31506476      54.79125539
S        5.23529229       3.31506476      51.61730539
W       -1.69368406       6.99847005      53.20428039
S        2.90382177       1.10502159      54.79125539
S        2.90382177       1.10502159      51.61730539
W        4.08591583       4.78842688      53.20428039
S       -3.43410755       6.63012952      54.79125539
S       -3.43410755       6.63012952      51.61730539
W        1.75444531       2.57838370      53.20428039
S        2.34549234       4.42008635      54.79125539
S        2.34549234       4.42008635      51.61730539
VEC1       8.11107040       0.00000000       0.00000000
VEC2      -4.00645880       7.73515111       0.00000000
VEC3       0.00000000       0.00000000     107.17395000
