4

C       -1.23307512      -0.70476049      48.00000000
C       -0.00000000      -0.00000000      48.00000000
C       -0.00000000      -0.00000000      52.00000000
C       -1.23307512      -0.70476049      52.00000000
VEC1      -3.69922535      -2.11428147       0.00000000
VEC2      -1.23927219      -2.12501511       0.00000000
VEC3       0.00000000       0.00000000     104.00000000
