4

C        0.82000000       1.01028166      48.00000000
C        0.00000000       0.00000000      48.00000000
C        0.82000000       1.01028166      52.00000000
C        0.00000000       0.00000000      52.00000000
VEC1       2.46000000       0.90042249       0.00000000
VEC2       2.46000000       3.03084498       0.00000000
VEC3       0.00000000       0.00000000     104.00000000
