52

C        0.25230769      -6.88290344      48.00000000
C       -0.97769231      -6.17276261      48.00000000
C       -0.97769231      -4.75248094      48.00000000
C       -2.20769231      -4.04234011      48.00000000
C        3.94230769      -9.01332593      48.00000000
C        2.71230769      -8.30318510      48.00000000
C        2.71230769      -6.88290344      48.00000000
C        1.48230769      -6.17276261      48.00000000
C        1.48230769      -4.75248094      48.00000000
C        0.25230769      -4.04234011      48.00000000
C        0.25230769      -2.62205845      48.00000000
C       -0.97769231      -1.91191762      48.00000000
C       -2.20769231      -2.62205845      48.00000000
C        5.17230769      -8.30318510      48.00000000
C        5.17230769      -6.88290344      48.00000000
C        3.94230769      -6.17276261      48.00000000
C        3.94230769      -4.75248094      48.00000000
C        2.71230769      -4.04234011      48.00000000
C        2.71230769      -2.62205845      48.00000000
C        1.48230769      -1.91191762      48.00000000
C       -3.43769231      -4.75248094      48.00000000
C       -4.66769230      -4.04234011      48.00000000
C        7.63230769      -6.88290344      48.00000000
C        6.40230769      -6.17276261      48.00000000
C        6.40230769      -4.75248094      48.00000000
C        5.17230769      -4.04234011      48.00000000
C        0.25230769      -6.88290344      52.00000000
C       -0.97769231      -6.17276261      52.00000000
C       -0.97769231      -4.75248094      52.00000000
C       -2.20769231      -4.04234011      52.00000000
C        3.94230769      -9.01332593      52.00000000
C        2.71230769      -8.30318510      52.00000000
C        2.71230769      -6.88290344      52.00000000
C        1.48230769      -6.17276261      52.00000000
C        1.48230769      -4.75248094      52.00000000
C        0.25230769      -4.04234011      52.00000000
C        0.25230769      -2.62205845      52.00000000
C       -0.97769231      -1.91191762      52.00000000
C       -2.20769231      -2.62205845      52.00000000
C        5.17230769      -8.30318510      52.00000000
C        5.17230769      -6.88290344      52.00000000
C        3.94230769      -6.17276261      52.00000000
C        3.94230769      -4.75248094      52.00000000
C        2.71230769      -4.04234011      52.00000000
C        2.71230769      -2.62205845      52.00000000
C        1.48230769      -1.91191762      52.00000000
C       -3.43769231      -4.75248094      52.00000000
C       -4.66769230      -4.04234011      52.00000000
C        7.63230769      -6.88290344      52.00000000
C        6.40230769      -6.17276261      52.00000000
C        6.40230769      -4.75248094      52.00000000
C        5.17230769      -4.04234011      52.00000000
VEC1      -4.92000000      -4.26084498       0.00000000
VEC2       8.60999999      -6.39126748       0.00000000
VEC3       0.00000000       0.00000000     104.00000000
