8

C       -0.00000000      -0.00000000      48.00000000
C        2.47220633      -1.39870704      48.00000000
C        1.24849683      -2.11952703      48.00000000
C        0.01239367      -1.42017350      48.00000000
C       -0.60565792      -1.07049674      52.00000000
C        1.86654841      -2.46920379      52.00000000
C        1.85415475      -1.04903028      52.00000000
C        0.61805158      -0.34967676      52.00000000
VEC1      -1.21131583      -2.14099349       0.00000000
VEC2       3.70830950      -2.09806057       0.00000000
VEC3       0.00000000       0.00000000     104.00000000
