8

C       -1.22370950      -0.72081998      48.00000000
C        1.24849683      -2.11952703      48.00000000
C        1.23610317      -0.69935352      48.00000000
C        0.00000000       0.00000000      48.00000000
C       -1.22370950      -0.72081998      52.00000000
C       -2.45981266      -0.02146646      52.00000000
C        1.23610317      -0.69935352      52.00000000
C        0.00000000       0.00000000      52.00000000
VEC1      -4.91962533      -0.04293292       0.00000000
VEC2       3.70830950      -2.09806057       0.00000000
VEC3       0.00000000       0.00000000     104.00000000
