3

Mo       1.58000000       0.91221342      50.00000000
S        0.00000000       0.00000000      51.58055000
S        0.00000000       0.00000000      48.41945000
VEC1       3.16000000       0.00000000       0.00000000
VEC2      -1.58000000       2.73664028       0.00000000
VEC3       0.00000000       0.00000000     103.16110000
